[TITLE]
Dense Urban Distribution Network (City Style - Final)

[JUNCTIONS]
;ID Elev Demand Pattern
J1 480 8 P1
J2 480 8 P1
J3 480 8 P1
J4 480 8 P1
J5 480 8 P1
J6 480 8 P1
J7 480 8 P1
J8 480 8 P1
J9 480 8 P1
J10 480 8 P1
J11 480 8 P1
J12 480 8 P1
J13 480 8 P1
J14 480 8 P1
J15 480 8 P1
J16 480 8 P1
J17 480 8 P1
J18 480 8 P1
J19 480 8 P1
J20 480 8 P1
J21 480 8 P1
J22 480 8 P1
J23 480 8 P1
J24 480 8 P1
J25 480 8 P1
J26 480 8 P1
J27 480 8 P1
J28 480 8 P1
J29 480 8 P1
J30 480 8 P1
J31 480 8 P1
J32 480 8 P1
J33 480 8 P1
J34 480 8 P1
J35 480 8 P1
J36 480 8 P1
J37 480 8 P1
J38 480 8 P1
J39 480 8 P1
J40 480 8 P1
J41 480 8 P1
J42 480 8 P1
J43 480 8 P1
J44 480 8 P1
J45 480 8 P1
J46 480 8 P1
J47 480 8 P1
J48 480 8 P1
J49 480 8 P1
J50 480 8 P1
J51 480 8 P1
J52 480 8 P1
J53 480 8 P1
J54 480 8 P1
J55 480 8 P1
J56 480 8 P1
J57 480 8 P1
J58 480 8 P1
J59 480 8 P1
J60 480 8 P1
J61 480 8 P1
J62 480 8 P1
J63 480 8 P1
J64 480 8 P1
J65 480 8 P1
J66 480 8 P1
J67 480 8 P1
J68 480 8 P1
J69 480 8 P1
J70 480 8 P1
J71 480 8 P1
J72 480 8 P1

[RESERVOIRS]
R0 560

[TANKS]
T1 520 10 5 15 25
T2 520 10 5 15 25
T3 520 10 5 15 25

[PIPES]
;ID Node1 Node2 Length Diameter Roughness

P1 R0 J1 500 300 100
P2 J1 J2 300 250 100
P3 J2 J3 300 250 100
P4 J3 J4 300 250 100
P5 J4 J5 300 250 100

P6 J2 J6 250 200 100
P7 J6 J7 200 180 100
P8 J7 J8 200 180 100
P9 J8 J9 200 180 100
P10 J9 J3 200 180 100

P11 J7 J10 200 150 100
P12 J10 J11 200 150 100
P13 J11 J6 200 150 100

P14 J3 J12 250 200 100
P15 J12 J13 200 180 100
P16 J13 J14 200 180 100
P17 J14 J4 200 180 100

P18 J13 J15 200 150 100
P19 J15 J16 200 150 100
P20 J16 J12 200 150 100

P21 J4 J17 250 200 100
P22 J17 J18 200 180 100
P23 J18 J19 200 180 100
P24 J19 J5 200 180 100

P25 J17 J20 200 150 100
P26 J20 J21 200 150 100
P27 J21 J18 200 150 100

P28 J20 J22 200 150 100
P29 J22 J23 200 150 100
P30 J23 J21 200 150 100

P31 J18 J24 200 180 100
P32 J24 J25 200 180 100
P33 J25 J26 200 180 100
P34 J26 J19 200 180 100

P35 J24 J27 200 150 100
P36 J27 J28 200 150 100
P37 J28 J25 200 150 100

P38 J5 J29 300 250 100
P39 J29 J30 250 200 100
P40 J30 J31 250 200 100
P41 J31 J32 250 200 100

P42 J30 J33 200 180 100
P43 J33 J34 200 180 100
P44 J34 J35 200 180 100

P45 J33 J36 200 150 100
P46 J36 J37 200 150 100

P47 J14 J38 200 150 100
P48 J38 J39 200 150 100
P49 J39 J40 200 150 100

P50 J26 J41 200 150 100
P51 J41 J42 200 150 100
P52 J42 J43 200 150 100

P53 J31 J44 200 150 100
P54 J44 J45 200 150 100
P55 J45 J46 200 150 100

P56 J28 J47 200 150 100
P57 J47 J48 200 150 100

P58 J34 J49 200 150 100
P59 J49 J50 200 150 100

P60 J10 T1 200 300 100
P61 J16 T2 200 300 100
P62 J32 T3 200 300 100

P63 J2 J61 180 150 100
P64 J61 J62 180 150 100
P65 J62 J63 180 150 100

P66 J30 J64 180 150 100
P67 J64 J65 180 150 100
P68 J65 J66 180 150 100

P69 J3 J67 180 150 100
P70 J67 J68 180 150 100
P71 J68 J69 180 150 100

P72 J31 J70 180 150 100
P73 J70 J71 180 150 100
P74 J71 J72 180 150 100

; NEW CONNECTIONS FOR J51–J60 (EXTENSION ZONE)

P75 J50 J51 200 150 100
P76 J51 J52 200 150 100
P77 J52 J53 200 150 100
P78 J53 J54 200 150 100
P79 J54 J55 200 150 100

P80 J55 J56 200 150 100
P81 J56 J57 200 150 100
P82 J57 J58 200 150 100
P83 J58 J59 200 150 100
P84 J59 J60 200 150 100

[PATTERNS]
P1 1.0

[COORDINATES]
R0 0 200
J1 80 200
J2 140 210
J3 200 220
J4 260 230
J5 320 240

J6 120 260
J7 100 300
J8 140 320
J9 180 300

J10 80 340
J11 120 360

J12 220 300
J13 260 330
J14 300 300

J15 260 360
J16 220 360

J17 260 200
J18 300 180
J19 340 200

J20 240 160
J21 280 140
J22 220 140
J23 260 120

J24 280 120
J25 320 100
J26 360 120

J27 260 80
J28 300 60

J29 380 240
J30 440 260
J31 500 280
J32 560 300

J33 420 300
J34 460 330
J35 500 360

J36 400 340
J37 360 360

J38 320 360
J39 360 390
J40 400 420

J41 380 80
J42 420 60
J43 460 40

J44 540 320
J45 580 340
J46 620 360

J47 320 40
J48 360 20

J49 520 360
J50 560 380

J61 120 230
J62 90 250
J63 60 270

J64 470 240
J65 510 260
J66 550 280

; LEFT BOTTOM FILL
J67 180 180
J68 140 150
J69 100 120

; RIGHT BOTTOM FILL
J70 520 200
J71 560 170
J72 600 140



T1 100 360
T2 220 380
T3 560 320

[OPTIONS]
UNITS LPS
HEADLOSS H-W

[END]
